tiledrain.str: written by SWAT+ editor v2.1.0 on 2023-02-01 16:50 for SWAT+ rev.60.5.4
name                        dp          t_fc           lag           rad          dist         drain          pump      lat_ksat  
mw24_1000            1200.00000      48.00000      96.00000     30.00000      17000.00000      10.00000       1.00000       2.00000  
